Circuit: * C:\data\SpiderOak\projects\ContextualElectronics\LoudMouth\spice\class_a_amplifier.asc

WARNING: Node N004 is floating.

WARNING: Less than two connections to node N004.  This node is used by C3.
Direct Newton iteration for .op point succeeded.

Date: Sun Aug 30 08:20:01 2015
Total elapsed time: 23.178 seconds.

tnom = 27
temp = 27
method = modified trap
totiter = 302896
traniter = 302888
tranpoints = 151308
accept = 151296
rejected = 12
matrix size = 12
fillins = 2
solver = Normal
Matrix Compiler1: 766 bytes object code size  0.5/0.3/[0.2]
Matrix Compiler2: off  [0.2]/0.4/0.2


