Circuit: * D:\Data\SpiderOak\projects\ContextualElectronics\LoudMouth\spice\class_a_amplifier.asc

WARNING: Node N004 is floating.

WARNING: Less than two connections to node N004.  This node is used by C3.
Direct Newton iteration for .op point succeeded.

Date: Sat Aug 29 10:34:17 2015
Total elapsed time: 0.070 seconds.

tnom = 27
temp = 27
method = modified trap
totiter = 2403
traniter = 2396
tranpoints = 1196
accept = 1110
rejected = 86
matrix size = 12
fillins = 2
solver = Normal
Matrix Compiler1: 766 bytes object code size  1.5/1.5/[1.3]
Matrix Compiler2: off  [1.3]/1.5/1.6


