Circuit: * D:\Data\SpiderOak\projects\ContextualElectronics\LoudMouth\spice\class_a_amplifier.asc

WARNING: Node N004 is floating.

WARNING: Less than two connections to node N004.  This node is used by C3.
Direct Newton iteration for .op point succeeded.

Date: Sun Sep 13 20:41:37 2015
Total elapsed time: 1.263 seconds.

tnom = 27
temp = 27
method = modified trap
totiter = 203033
traniter = 203026
tranpoints = 75010
accept = 48013
rejected = 26997
matrix size = 12
fillins = 2
solver = Normal
Matrix Compiler1: 766 bytes object code size  1.6/1.5/[1.4]
Matrix Compiler2: off  [1.3]/1.5/1.6


