Circuit: * C:\data\SpiderOak\projects\ContextualElectronics\LoudMouth\ClassA\spice\class_a_amplifier_5v_vcc.asc

Direct Newton iteration for .op point succeeded.

Date: Sat Feb 20 16:00:05 2016
Total elapsed time: 0.292 seconds.

tnom = 27
temp = 27
method = modified trap
totiter = 7835
traniter = 7828
tranpoints = 3915
accept = 2418
rejected = 1497
matrix size = 11
fillins = 0
solver = Normal
Matrix Compiler1: 628 bytes object code size  0.3/0.3/[0.2]
Matrix Compiler2: off  [0.1]/0.3/0.1


